/*--------------------------------*- C++ -*----------------------------------*\
| =========                 |                                                 |
| \\      /  F ield         | OpenFOAM: The Open Source CFD Toolbox           |
|  \\    /   O peration     | Version:  2312                                  |
|   \\  /    A nd           | Website:  www.openfoam.com                      |
|    \\/     M anipulation  |                                                 |
\*---------------------------------------------------------------------------*/
FoamFile
{
    version     2.0;
    format      ascii;
    arch        "LSB;label=32;scalar=64";
    class       polyBoundaryMesh;
    location    "constant/polyMesh";
    object      boundary;
}
// * * * * * * * * * * * * * * * * * * * * * * * * * * * * * * * * * * * * * //

4
(
    side1
    {
        type            patch;
        nFaces          1;
        startFace       7999;
    }
    side2
    {
        type            patch;
        nFaces          1;
        startFace       8000;
    }
    empty1
    {
        type            empty;
        inGroups        1(empty);
        nFaces          16000;
        startFace       8001;
    }
    empty2
    {
        type            empty;
        inGroups        1(empty);
        nFaces          16000;
        startFace       24001;
    }
)

// ************************************************************************* //
